&NAMPISBIO
 NRDTTRC=          1,
 /
&NAMPISSINK
 ZZ_W_SINK_PMICRO_MIN= 0.50000000000000000     ,
 ZZ_W_SINK_PMICRO_MAX=  1.2000000000000000     ,
 ZZ_W_SINK_D_PON= 1.00000000000000005E-004,
 ZZ_W_SINK_D_BSI= 2.79999999999999975E-004,
 ZZ_ALPHA_B_SI= 0.92000000000000004     ,
 ZZ_ALPHA_B_D=  0.0000000000000000     ,
 ZZ_ALPHA_B_N= 0.45000000000000001     ,
 ZZ_ALPHA_B_T= 0.75000000000000000     ,
 /
&NAMPISOPT
 ZZIALPHA= 9.09999999999999976E-002,
 ZZIBETA= 4.32999999999999982E-002,
 ZZIGAMMA= 2.61999999999999984E-022,
 ZZISIGMA=  5.5000000000000000     ,
 ZZITHETA= 0.44500000000000001     ,
 ZZIDL=  2.5600000000000001     ,
 ZZN2CHL=  2.0000000000000000     ,
 /
&NAMPISPROD
 ZZ_RATE_R_DIAT= 5.45000000000000034E-005,
 ZZ_RATE_R_MYRI= 2.00000000000000016E-005,
 ZZ_RATE_R_NANO= 1.90000000000000010E-005,
 ZZ_RATE_MAXTEMP_DIAT=  26.000000000000000     ,
 ZZ_RATE_MAXTEMP_MYRI=  31.000000000000000     ,
 ZZ_RATE_MAXTEMP_NANO=  31.000000000000000     ,
 ZZ_RATE_TEMPRANGE_DIAT=  14.000000000000000     ,
 ZZ_RATE_TEMPRANGE_MYRI=  13.000000000000000     ,
 ZZ_RATE_TEMPRANGE_NANO=  13.000000000000000     ,
 ZZ_RATE_IOPT_DIAT=  45.000000000000000     ,
 ZZ_RATE_IOPT_MYRI=  37.000000000000000     ,
 ZZ_RATE_IOPT_NANO=  10.000000000000000     ,
 ZZ_RATE_GAMMA_DIAT=  0.0000000000000000     ,
 ZZ_RATE_GAMMA_MYRI=  0.0000000000000000     ,
 ZZ_RATE_GAMMA_NANO=  0.0000000000000000     ,
 ZZ_RATE_K_SI_DIAT=  2.2000000000000002     ,
 ZZ_RATE_K_SI_MYRI=  0.0000000000000000     ,
 ZZ_RATE_K_SI_NANO=  0.0000000000000000     ,
 ZZ_RATE_KAPA_DIAT=  1.0000000000000000     ,
 ZZ_RATE_KAPA_MYRI= 0.50000000000000000     ,
 ZZ_RATE_KAPA_NANO= 0.29999999999999999     ,
 ZZ_RATE_K_DIAT=  2.0000000000000000     ,
 ZZ_RATE_K_MYRI= 0.50000000000000000     ,
 ZZ_RATE_K_NANO= 0.20000000000000001     ,
 ZZ_RATE_SI_RATIO_DIAT=  1.8000000000000000     ,
 ZZ_RATE_SI_RATIO_MYRI=  0.0000000000000000     ,
 ZZ_RATE_SI_RATIO_NANO=  0.0000000000000000     ,
 ZZ_CHLR= 0.20000000000000001     ,
 /
&NAMPISSBC
 CN_DIR="./                                                                                                  ",
 SN_RIVERNO3%CLNAME="rivers-climatology/bio/R201906_bioClim                                                                                                                                                                                                                          ",
 SN_RIVERNO3%NFREQH=  24.000000000000000     ,
 SN_RIVERNO3%CLVAR="no3                               ",
 SN_RIVERNO3%LN_TINT=T,
 SN_RIVERNO3%LN_CLIM=T,
 SN_RIVERNO3%CLTYPE="daily   ",
 SN_RIVERNO3%WNAME="                                                                                                                                                                                                                                                                ",
 SN_RIVERNO3%VCOMP="                                  ",
 SN_RIVERNO3%LNAME="                                  ",
 SN_RIVERNH4%CLNAME="rivers-climatology/bio/R201906_bioConst                                                                                                                                                                                                                         ",
 SN_RIVERNH4%NFREQH= -12.000000000000000     ,
 SN_RIVERNH4%CLVAR="nh4                               ",
 SN_RIVERNH4%LN_TINT=F,
 SN_RIVERNH4%LN_CLIM=T,
 SN_RIVERNH4%CLTYPE="yearly  ",
 SN_RIVERNH4%WNAME="                                                                                                                                                                                                                                                                ",
 SN_RIVERNH4%VCOMP="                                  ",
 SN_RIVERNH4%LNAME="                                  ",
 SN_RIVERSIL%CLNAME="rivers-climatology/bio/R201906_bioClim                                                                                                                                                                                                                          ",
 SN_RIVERSIL%NFREQH=  24.000000000000000     ,
 SN_RIVERSIL%CLVAR="sil                               ",
 SN_RIVERSIL%LN_TINT=T,
 SN_RIVERSIL%LN_CLIM=T,
 SN_RIVERSIL%CLTYPE="daily   ",
 SN_RIVERSIL%WNAME="                                                                                                                                                                                                                                                                ",
 SN_RIVERSIL%VCOMP="                                  ",
 SN_RIVERSIL%LNAME="                                  ",
 SN_RIVERDIA%CLNAME="rivers-climatology/bio/R201906_bioConst                                                                                                                                                                                                                         ",
 SN_RIVERDIA%NFREQH= -12.000000000000000     ,
 SN_RIVERDIA%CLVAR="dia                               ",
 SN_RIVERDIA%LN_TINT=F,
 SN_RIVERDIA%LN_CLIM=T,
 SN_RIVERDIA%CLTYPE="yearly  ",
 SN_RIVERDIA%WNAME="                                                                                                                                                                                                                                                                ",
 SN_RIVERDIA%VCOMP="                                  ",
 SN_RIVERDIA%LNAME="                                  ",
 SN_RIVERPHY%CLNAME="rivers-climatology/bio/R201906_bioConst                                                                                                                                                                                                                         ",
 SN_RIVERPHY%NFREQH= -12.000000000000000     ,
 SN_RIVERPHY%CLVAR="phy                               ",
 SN_RIVERPHY%LN_TINT=F,
 SN_RIVERPHY%LN_CLIM=T,
 SN_RIVERPHY%CLTYPE="yearly  ",
 SN_RIVERPHY%WNAME="                                                                                                                                                                                                                                                                ",
 SN_RIVERPHY%VCOMP="                                  ",
 SN_RIVERPHY%LNAME="                                  ",
 SN_RIVERMES%CLNAME="rivers-climatology/bio/R201906_bioConst                                                                                                                                                                                                                         ",
 SN_RIVERMES%NFREQH= -12.000000000000000     ,
 SN_RIVERMES%CLVAR="mes                               ",
 SN_RIVERMES%LN_TINT=F,
 SN_RIVERMES%LN_CLIM=T,
 SN_RIVERMES%CLTYPE="yearly  ",
 SN_RIVERMES%WNAME="                                                                                                                                                                                                                                                                ",
 SN_RIVERMES%VCOMP="                                  ",
 SN_RIVERMES%LNAME="                                  ",
 SN_RIVERZOO%CLNAME="rivers-climatology/bio/R201906_bioConst                                                                                                                                                                                                                         ",
 SN_RIVERZOO%NFREQH= -12.000000000000000     ,
 SN_RIVERZOO%CLVAR="zoo                               ",
 SN_RIVERZOO%LN_TINT=F,
 SN_RIVERZOO%LN_CLIM=T,
 SN_RIVERZOO%CLTYPE="yearly  ",
 SN_RIVERZOO%WNAME="                                                                                                                                                                                                                                                                ",
 SN_RIVERZOO%VCOMP="                                  ",
 SN_RIVERZOO%LNAME="                                  ",
 SN_RIVERDOC%CLNAME="rivers-climatology/bio/R201906_bioConst                                                                                                                                                                                                                         ",
 SN_RIVERDOC%NFREQH= -12.000000000000000     ,
 SN_RIVERDOC%CLVAR="don                               ",
 SN_RIVERDOC%LN_TINT=F,
 SN_RIVERDOC%LN_CLIM=T,
 SN_RIVERDOC%CLTYPE="yearly  ",
 SN_RIVERDOC%WNAME="                                                                                                                                                                                                                                                                ",
 SN_RIVERDOC%VCOMP="                                  ",
 SN_RIVERDOC%LNAME="                                  ",
 SN_RIVERPOC%CLNAME="rivers-climatology/bio/R201906_bioConst                                                                                                                                                                                                                         ",
 SN_RIVERPOC%NFREQH= -12.000000000000000     ,
 SN_RIVERPOC%CLVAR="pon                               ",
 SN_RIVERPOC%LN_TINT=F,
 SN_RIVERPOC%LN_CLIM=T,
 SN_RIVERPOC%CLTYPE="yearly  ",
 SN_RIVERPOC%WNAME="                                                                                                                                                                                                                                                                ",
 SN_RIVERPOC%VCOMP="                                  ",
 SN_RIVERPOC%LNAME="                                  ",
 SN_RIVERDSI%CLNAME="rivers-climatology/bio/R201906_bioConst                                                                                                                                                                                                                         ",
 SN_RIVERDSI%NFREQH= -12.000000000000000     ,
 SN_RIVERDSI%CLVAR="bsi                               ",
 SN_RIVERDSI%LN_TINT=F,
 SN_RIVERDSI%LN_CLIM=T,
 SN_RIVERDSI%CLTYPE="yearly  ",
 SN_RIVERDSI%WNAME="                                                                                                                                                                                                                                                                ",
 SN_RIVERDSI%VCOMP="                                  ",
 SN_RIVERDSI%LNAME="                                  ",
 SN_RIVERTRA%CLNAME="rivers-climatology/bio/R201906_bioConst                                                                                                                                                                                                                         ",
 SN_RIVERTRA%NFREQH= -12.000000000000000     ,
 SN_RIVERTRA%CLVAR="tur                               ",
 SN_RIVERTRA%LN_TINT=F,
 SN_RIVERTRA%LN_CLIM=T,
 SN_RIVERTRA%CLTYPE="yearly  ",
 SN_RIVERTRA%WNAME="                                                                                                                                                                                                                                                                ",
 SN_RIVERTRA%VCOMP="                                  ",
 SN_RIVERTRA%LNAME="                                  ",
 SN_TURB%CLNAME="river_turb/riverTurbDaily201906                                                                                                                                                                                                                                 ",
 SN_TURB%NFREQH=  24.000000000000000     ,
 SN_TURB%CLVAR="turb                              ",
 SN_TURB%LN_TINT=T,
 SN_TURB%LN_CLIM=F,
 SN_TURB%CLTYPE="daily   ",
 SN_TURB%WNAME="                                                                                                                                                                                                                                                                ",
 SN_TURB%VCOMP="                                  ",
 SN_TURB%LNAME="                                  ",
 LN_RIVER=T,
 LN_TURB=T,
 SN_RIVERDIC%CLNAME="rivers-climatology/skog_sens_highFras/rivers_skog_tracers                                                                                                                                                                                                       ",
 SN_RIVERDIC%NFREQH=  24.000000000000000     ,
 SN_RIVERDIC%CLVAR="dic                               ",
 SN_RIVERDIC%LN_TINT=T,
 SN_RIVERDIC%LN_CLIM=T,
 SN_RIVERDIC%CLTYPE="daily   ",
 SN_RIVERDIC%WNAME="                                                                                                                                                                                                                                                                ",
 SN_RIVERDIC%VCOMP="                                  ",
 SN_RIVERDIC%LNAME="                                  ",
 SN_RIVERTA%CLNAME="rivers-climatology/skog_sens_highFras/rivers_skog_tracers                                                                                                                                                                                                       ",
 SN_RIVERTA%NFREQH=  24.000000000000000     ,
 SN_RIVERTA%CLVAR="ta                                ",
 SN_RIVERTA%LN_TINT=T,
 SN_RIVERTA%LN_CLIM=T,
 SN_RIVERTA%CLTYPE="daily   ",
 SN_RIVERTA%WNAME="                                                                                                                                                                                                                                                                ",
 SN_RIVERTA%VCOMP="                                  ",
 SN_RIVERTA%LNAME="                                  ",
 SN_RIVERO2%CLNAME="rivers-climatology/bio/rivers_bio_tracers                                                                                                                                                                                                                       ",
 SN_RIVERO2%NFREQH=  24.000000000000000     ,
 SN_RIVERO2%CLVAR="oxy                               ",
 SN_RIVERO2%LN_TINT=T,
 SN_RIVERO2%LN_CLIM=T,
 SN_RIVERO2%CLTYPE="daily   ",
 SN_RIVERO2%WNAME="                                                                                                                                                                                                                                                                ",
 SN_RIVERO2%VCOMP="                                  ",
 SN_RIVERO2%LNAME="                                  ",
 /
&NAMPISREM
 ZZ_REMIN_NH= 3.99999999999999982E-007,
 ZZ_REMIN_D_DON= 2.30000000000000000E-006,
 ZZ_REMIN_D_PON= 2.30000000000000000E-006,
 ZZ_REMIN_D_BSI= 1.10000000000000006E-006,
 ZZ_BFSI= 6.00000000000000015E-005,
 /
&NAMPISMORT
 ZZ_RATE_PICO_RM= 4.40000000000000022E-007,
 ZZ_FRAC_WASTE_FNM_NH= 5.00000000000000028E-002,
 ZZ_FRAC_WASTE_FNM_DON= 0.46999999999999997     ,
 ZZ_FRAC_WASTE_FNM_PON= 0.46999999999999997     ,
 ZZ_FRAC_WASTE_FNM_REF= 2.00000000000000004E-002,
 ZZ_FRAC_WASTE_FNM_BSI=  1.0000000000000000     ,
 ZZ_RATE_MYRI_RM= 6.99999999999999968E-007,
 ZZ_FRAC_WASTE_NNM_NH= 5.00000000000000028E-002,
 ZZ_FRAC_WASTE_NNM_DON= 0.46999999999999997     ,
 ZZ_FRAC_WASTE_NNM_PON= 0.46999999999999997     ,
 ZZ_FRAC_WASTE_NNM_REF= 2.00000000000000004E-002,
 ZZ_FRAC_WASTE_NNM_BSI=  1.0000000000000000     ,
 ZZ_RATE_MICRO_RM= 5.99999999999999973E-007,
 ZZ_FRAC_WASTE_DNM_NH= 5.00000000000000028E-002,
 ZZ_FRAC_WASTE_DNM_DON= 0.46999999999999997     ,
 ZZ_FRAC_WASTE_DNM_PON= 0.46999999999999997     ,
 ZZ_FRAC_WASTE_DNM_REF= 2.00000000000000004E-002,
 ZZ_FRAC_WASTE_DNM_BSI=  1.0000000000000000     ,
 /
&NAMPISZOO
 ZZ_RATE_UZOO_RM= 4.99999999999999977E-007,
 ZZ_RATE_UZOO_EXCR= 4.99999999999999977E-008,
 ZZ_FRAC_WASTE_ZNM_NH= 5.00000000000000028E-002,
 ZZ_FRAC_WASTE_ZEX_NH= 0.25000000000000000     ,
 ZZ_RATE_UZOO_PREDSLOPE= 0.20000000000000001     ,
 ZZ_RATE_UZOO_HALFSAT=  1.2500000000000000     ,
 ZZ_RATE_UZOO_MICROPREF= 0.27000000000000002     ,
 ZZ_RATE_UZOO_MICROPREDSLOPE= 0.10000000000000001     ,
 ZZ_RATE_UZOO_MICROHALFSAT=  1.0000000000000000     ,
 ZZ_RATE_UZOO_NANOPREF= 0.16500000000000001     ,
 ZZ_RATE_UZOO_NANOPREDSLOPE= 0.20000000000000001     ,
 ZZ_RATE_UZOO_NANOHALFSAT=  1.0000000000000000     ,
 ZZ_RATE_UZOO_PICOPREF= 0.29499999999999998     ,
 ZZ_RATE_UZOO_PICOPREDSLOPE= 5.00000000000000028E-002,
 ZZ_RATE_UZOO_PICOHALFSAT=  1.0000000000000000     ,
 ZZ_RATE_UZOO_PON_PREF= 8.99999999999999967E-002,
 ZZ_RATE_UZOO_PON_PREDSLOPE= 0.50000000000000000     ,
 ZZ_RATE_UZOO_PON_HALFSAT=  2.0000000000000000     ,
 ZZ_RATE_UZOO_Z_PREF= 0.17999999999999999     ,
 ZZ_RATE_UZOO_Z_PREDSLOPE= 0.20000000000000001     ,
 ZZ_RATE_UZOO_Z_HALFSAT= 0.50000000000000000     ,
 ZZ_RATE_UZOO_R= 2.47999999999999997E-005,
 ZZ_FRAC_WASTE_PEZ_NH=  0.0000000000000000     ,
 ZZ_FRAC_WASTE_DEZ_NH= 5.00000000000000028E-002,
 ZZ_FRAC_WASTE_NEZ_NH= 5.00000000000000028E-002,
 ZZ_FRAC_WASTE_FEZ_NH= 5.00000000000000028E-002,
 ZZ_FRAC_WASTE_ZEZ_NH= 5.00000000000000028E-002,
 ZZ_RATE_UZOO_EFF= 0.59999999999999998     ,
 ZZ_FRAC_WASTE_ZNM_DON= 0.46999999999999997     ,
 ZZ_FRAC_WASTE_ZEX_DON= 0.25000000000000000     ,
 ZZ_FRAC_WASTE_DEZ_DON= 0.46999999999999997     ,
 ZZ_FRAC_WASTE_FEZ_DON= 0.46999999999999997     ,
 ZZ_FRAC_WASTE_NEZ_DON= 0.46999999999999997     ,
 ZZ_FRAC_WASTE_PEZ_DON=  0.0000000000000000     ,
 ZZ_FRAC_WASTE_ZEZ_DON= 0.46999999999999997     ,
 ZZ_FRAC_WASTE_ZNM_PON= 0.46999999999999997     ,
 ZZ_FRAC_WASTE_ZEX_PON= 0.50000000000000000     ,
 ZZ_FRAC_WASTE_DEZ_PON= 0.46999999999999997     ,
 ZZ_FRAC_WASTE_FEZ_PON= 0.46999999999999997     ,
 ZZ_FRAC_WASTE_NEZ_PON= 0.46999999999999997     ,
 ZZ_FRAC_WASTE_PEZ_PON=  1.0000000000000000     ,
 ZZ_FRAC_WASTE_ZEZ_PON= 0.46999999999999997     ,
 ZZ_FRAC_WASTE_ZNM_BSI=  0.0000000000000000     ,
 ZZ_FRAC_WASTE_ZEX_BSI=  0.0000000000000000     ,
 ZZ_FRAC_WASTE_DEZ_BSI=  1.0000000000000000     ,
 ZZ_FRAC_WASTE_FEZ_BSI=  1.0000000000000000     ,
 ZZ_FRAC_WASTE_NEZ_BSI=  1.0000000000000000     ,
 ZZ_FRAC_WASTE_PEZ_BSI=  0.0000000000000000     ,
 ZZ_FRAC_WASTE_ZEZ_BSI=  0.0000000000000000     ,
 /
&NAMPISMES
 ZZ_RATE_MESORUB_R= 1.70000000000000003E-006,
 ZZ_RATE_MESORUB_PICOPREDSLOPE= 0.29999999999999999     ,
 ZZ_RATE_MESORUB_PICOHALFSAT=  1.0000000000000000     ,
 ZZ_RATE_MESORUB_EFF= 0.59999999999999998     ,
 ZZ_FRAC_WASTE_FEN_NH= 5.00000000000000028E-002,
 ZZ_FRAC_WASTE_FEN_DON= 0.46999999999999997     ,
 ZZ_FRAC_WASTE_FEN_PON= 0.46999999999999997     ,
 ZZ_FRAC_WASTE_FEN_BSI=  1.0000000000000000     ,
 /
&NAMPISMEZO
 ZZ_RATE_MESOZOO_WINTERCONC= 0.38000000000000000     ,
 ZZ_RATE_MESOZOO_SUMPEAKVAL= 2*0.55000000000000004      , 0.35999999999999999     ,
 ZZ_RATE_MESOZOO_SUMPEAKPOS=  130.00000000000000     ,  206.00000000000000     ,  290.00000000000000     ,
 ZZ_RATE_MESOZOO_SUMPEAKWID=  40.000000000000000     ,  70.000000000000000     ,  43.000000000000000     ,
 ZZ_RATE_MESOZOO_ALPHA=  1.0000000000000000     ,
 ZZ_RATE_MESOZOO_R= 1.36999999999999993E-005,
 ZZ_RATE_MESOZOO_RM=  0.0000000000000000     ,
 ZZ_RATE_MESOZOO_EXCR=  0.0000000000000000     ,
 ZZ_RATE_MESOZOO_PREDSLOPE= 0.20000000000000001     ,
 ZZ_RATE_MESOZOO_HALFSAT=  1.0000000000000000     ,
 ZZ_RATE_MESOZOO_MICROPREF= 0.28000000000000003     ,
 ZZ_RATE_MESOZOO_MICROPREDSLOPE=  0.0000000000000000     ,
 ZZ_RATE_MESOZOO_MICROHALFSAT= 0.29999999999999999     ,
 ZZ_RATE_MESOZOO_NANOPREF= 0.18500000000000000     ,
 ZZ_RATE_MESOZOO_NANOPREDSLOPE= 0.10000000000000001     ,
 ZZ_RATE_MESOZOO_NANOHALFSAT=  1.0000000000000000     ,
 ZZ_RATE_MESOZOO_PICOPREF= 0.10500000000000000     ,
 ZZ_RATE_MESOZOO_PICOPREDSLOPE=  0.0000000000000000     ,
 ZZ_RATE_MESOZOO_PICOHALFSAT= 0.40000000000000002     ,
 ZZ_RATE_MESOZOO_PON_PREF= 0.14999999999999999     ,
 ZZ_RATE_MESOZOO_PON_PREDSLOPE=  0.0000000000000000     ,
 ZZ_RATE_MESOZOO_PON_HALFSAT= 0.40000000000000002     ,
 ZZ_RATE_MESOZOO_Z_PREF= 0.28000000000000003     ,
 ZZ_RATE_MESOZOO_Z_PREDSLOPE= 0.20000000000000001     ,
 ZZ_RATE_MESOZOO_Z_HALFSAT=  1.2000000000000000     ,
 ZZ_RATE_MESOZOO_EFF=  0.0000000000000000     ,
 ZZ_FRAC_WASTE_MNM_NH= 5.00000000000000028E-002,
 ZZ_FRAC_WASTE_MNM_DON= 0.46999999999999997     ,
 ZZ_FRAC_WASTE_MNM_PON= 0.46999999999999997     ,
 ZZ_FRAC_WASTE_MNM_BSI=  0.0000000000000000     ,
 ZZ_FRAC_WASTE_MEX_NH= 0.25000000000000000     ,
 ZZ_FRAC_WASTE_MEX_DON= 0.25000000000000000     ,
 ZZ_FRAC_WASTE_MEX_PON= 0.50000000000000000     ,
 ZZ_FRAC_WASTE_MEX_BSI=  0.0000000000000000     ,
 ZZ_FRAC_WASTE_PEM_NH=  0.0000000000000000     ,
 ZZ_FRAC_WASTE_PEM_DON=  0.0000000000000000     ,
 ZZ_FRAC_WASTE_PEM_PON=  1.0000000000000000     ,
 ZZ_FRAC_WASTE_PEM_BSI=  0.0000000000000000     ,
 ZZ_FRAC_WASTE_DEM_NH= 5.00000000000000028E-002,
 ZZ_FRAC_WASTE_DEM_DON= 0.46999999999999997     ,
 ZZ_FRAC_WASTE_DEM_PON= 0.46999999999999997     ,
 ZZ_FRAC_WASTE_DEM_BSI=  1.0000000000000000     ,
 ZZ_FRAC_WASTE_FEM_NH= 5.00000000000000028E-002,
 ZZ_FRAC_WASTE_FEM_DON= 0.46999999999999997     ,
 ZZ_FRAC_WASTE_FEM_PON= 0.46999999999999997     ,
 ZZ_FRAC_WASTE_FEM_BSI=  1.0000000000000000     ,
 ZZ_FRAC_WASTE_ZEM_NH= 5.00000000000000028E-002,
 ZZ_FRAC_WASTE_ZEM_DON= 0.46999999999999997     ,
 ZZ_FRAC_WASTE_ZEM_PON= 0.46999999999999997     ,
 ZZ_FRAC_WASTE_ZEM_BSI=  0.0000000000000000     ,
 ZZ_FRAC_WASTE_NEM_NH= 5.00000000000000028E-002,
 ZZ_FRAC_WASTE_NEM_DON= 0.46999999999999997     ,
 ZZ_FRAC_WASTE_NEM_PON= 0.46999999999999997     ,
 ZZ_FRAC_WASTE_NEM_BSI=  1.0000000000000000     ,
 /
&NAMPISRIV
 WD=  1.2000000000000000     ,
 ALPHA_C= 1.00000000000000005E-004,
 /
&NAMPISCARBON
 ZZ_REDFIELD_C_N=  6.6250000000000000     ,
 ZZ_REDFIELD_P_N= 6.25000000000000000E-002,
 ZZ_REDFIELD_O_N=  9.3750000000000000     ,
 /
&NAMPISEXT
 LN_CO2INT=F,
 CLNAME="atcco2.txt                        ",
 ZZ_CARBON_YEAR= -999.00000000000000     ,
 ZZ_LR_SLOPE=  2.1490000000000000     ,
 ZZ_LR_INT= -3929.3589999999999     ,
 ZZ_CTR=  161.89800000000000     ,
 ZZ_AMP=  7.0830000000000002     ,
 ZZ_WID=  44.703000000000003     ,
 ZZ_CTR2=  218.83199999999999     ,
 ZZ_AMP2= -19.004000000000001     ,
 ZZ_WID2=  87.883600000000001     ,
 ZZ_CTR3=  199.43000000000001     ,
 ZZ_AMP3=  8.0259999999999998     ,
 ZZ_WID3= -185.91999999999999     ,
 /
