&NAMTRC_RUN
 NN_DTTRC=          1,
 NN_WRITETRC=          1,
 LN_RSTTR=F,
 NN_RSTTR=          0,
 LN_TOP_EULER=T,
 CN_TRCRST_INDIR=".                                                                                                                                                                                                                                                               ",
 CN_TRCRST_OUTDIR=".                                                                                                                                                                                                                                                               ",
 CN_TRCRST_IN="restart_trc                                                                     ",
 CN_TRCRST_OUT="restart_trc                                                                     ",
 /
&NAMTRC
 SN_TRACER(1)%CLSNAME="NO3                 ",
 SN_TRACER(1)%CLLNAME="Nitrates Concentration                                                          ",
 SN_TRACER(1)%CLUNIT="mol-C/L             ",
 SN_TRACER(1)%LLINIT=T,
 SN_TRACER(1)%LLOBC=F,
 SN_TRACER(1)%LLSBC=F,
 SN_TRACER(1)%LLCBC=F,
 SN_TRACER(1)%LLSAVE=T,
 SN_TRACER(2)%CLSNAME="NH4                 ",
 SN_TRACER(2)%CLLNAME="Ammonium Concentration                                                          ",
 SN_TRACER(2)%CLUNIT="mol-C/L             ",
 SN_TRACER(2)%LLINIT=T,
 SN_TRACER(2)%LLOBC=F,
 SN_TRACER(2)%LLSBC=F,
 SN_TRACER(2)%LLCBC=F,
 SN_TRACER(2)%LLSAVE=T,
 SN_TRACER(3)%CLSNAME="Si                  ",
 SN_TRACER(3)%CLLNAME="Silicate Concentration                                                          ",
 SN_TRACER(3)%CLUNIT="mol-C/L             ",
 SN_TRACER(3)%LLINIT=T,
 SN_TRACER(3)%LLOBC=F,
 SN_TRACER(3)%LLSBC=F,
 SN_TRACER(3)%LLCBC=F,
 SN_TRACER(3)%LLSAVE=T,
 SN_TRACER(4)%CLSNAME="DIAT                ",
 SN_TRACER(4)%CLLNAME="Diatoms Concentration                                                           ",
 SN_TRACER(4)%CLUNIT="mol-C/L             ",
 SN_TRACER(4)%LLINIT=T,
 SN_TRACER(4)%LLOBC=F,
 SN_TRACER(4)%LLSBC=F,
 SN_TRACER(4)%LLCBC=F,
 SN_TRACER(4)%LLSAVE=T,
 SN_TRACER(5)%CLSNAME="PHY                 ",
 SN_TRACER(5)%CLLNAME="Nanophytoplankton Concentration                                                 ",
 SN_TRACER(5)%CLUNIT="mol-C/L             ",
 SN_TRACER(5)%LLINIT=T,
 SN_TRACER(5)%LLOBC=F,
 SN_TRACER(5)%LLSBC=F,
 SN_TRACER(5)%LLCBC=F,
 SN_TRACER(5)%LLSAVE=T,
 SN_TRACER(6)%CLSNAME="MYRI                ",
 SN_TRACER(6)%CLLNAME="Mesozooplankton Concentration                                                   ",
 SN_TRACER(6)%CLUNIT="mol-C/L             ",
 SN_TRACER(6)%LLINIT=T,
 SN_TRACER(6)%LLOBC=F,
 SN_TRACER(6)%LLSBC=F,
 SN_TRACER(6)%LLCBC=F,
 SN_TRACER(6)%LLSAVE=T,
 SN_TRACER(7)%CLSNAME="MICZ                ",
 SN_TRACER(7)%CLLNAME="Microzooplankton Concentration                                                  ",
 SN_TRACER(7)%CLUNIT="mol-C/L             ",
 SN_TRACER(7)%LLINIT=T,
 SN_TRACER(7)%LLOBC=F,
 SN_TRACER(7)%LLSBC=F,
 SN_TRACER(7)%LLCBC=F,
 SN_TRACER(7)%LLSAVE=T,
 SN_TRACER(8)%CLSNAME="DON                 ",
 SN_TRACER(8)%CLLNAME="Dissolved organic Concentration                                                 ",
 SN_TRACER(8)%CLUNIT="mol-C/L             ",
 SN_TRACER(8)%LLINIT=T,
 SN_TRACER(8)%LLOBC=F,
 SN_TRACER(8)%LLSBC=F,
 SN_TRACER(8)%LLCBC=F,
 SN_TRACER(8)%LLSAVE=T,
 SN_TRACER(9)%CLSNAME="PON                 ",
 SN_TRACER(9)%CLLNAME="Small organic carbon Concentration                                              ",
 SN_TRACER(9)%CLUNIT="mol-C/L             ",
 SN_TRACER(9)%LLINIT=F,
 SN_TRACER(9)%LLOBC=F,
 SN_TRACER(9)%LLSBC=F,
 SN_TRACER(9)%LLCBC=F,
 SN_TRACER(9)%LLSAVE=T,
 SN_TRACER(10)%CLSNAME="bSi                 ",
 SN_TRACER(10)%CLLNAME="biogenic Silicate Concentration                                                 ",
 SN_TRACER(10)%CLUNIT="mol-C/L             ",
 SN_TRACER(10)%LLINIT=T,
 SN_TRACER(10)%LLOBC=F,
 SN_TRACER(10)%LLSBC=F,
 SN_TRACER(10)%LLCBC=F,
 SN_TRACER(10)%LLSAVE=T,
 SN_TRACER(11)%CLSNAME="TRA                 ",
 SN_TRACER(11)%CLLNAME="River Tracer                                                                    ",
 SN_TRACER(11)%CLUNIT="mol-C/L             ",
 SN_TRACER(11)%LLINIT=F,
 SN_TRACER(11)%LLOBC=F,
 SN_TRACER(11)%LLSBC=F,
 SN_TRACER(11)%LLCBC=F,
 SN_TRACER(11)%LLSAVE=T,
 SN_TRACER(12)%CLSNAME="DIC                 ",
 SN_TRACER(12)%CLLNAME="Dissolved inorganic Carbon                                                      ",
 SN_TRACER(12)%CLUNIT="mol-C/L             ",
 SN_TRACER(12)%LLINIT=T,
 SN_TRACER(12)%LLOBC=F,
 SN_TRACER(12)%LLSBC=F,
 SN_TRACER(12)%LLCBC=F,
 SN_TRACER(12)%LLSAVE=T,
 SN_TRACER(13)%CLSNAME="TA                  ",
 SN_TRACER(13)%CLLNAME="Total Alkalinity                                                                ",
 SN_TRACER(13)%CLUNIT="mol-C/L             ",
 SN_TRACER(13)%LLINIT=T,
 SN_TRACER(13)%LLOBC=F,
 SN_TRACER(13)%LLSBC=F,
 SN_TRACER(13)%LLCBC=F,
 SN_TRACER(13)%LLSAVE=T,
 LN_TRCDTA=T,
 LN_TRCDMP=F,
 LN_TRCDMP_CLO=F,
 /
&NAMTRC_DIA
 LN_DIATRC=T,
 LN_DIABIO=T,
 NN_WRITEDIA=       5475,
 NN_WRITEBIO=         10,
 /
&NAMTRC_ADV
 LN_TRCADV_CEN2=F,
 LN_TRCADV_TVD=F,
 LN_TRCADV_MUSCL=T,
 LN_TRCADV_MUSCL2=F,
 LN_TRCADV_UBS=F,
 LN_TRCADV_QCK=F,
 LN_TRCADV_MSC_UPS=F,
 LN_TRCADV_TVD_ZTS=F,
 NN_TRCADV_TVD_ZTS=          0,
 /
&NAMTRC_LDF
 LN_TRCLDF_LAP=T,
 LN_TRCLDF_BILAP=F,
 LN_TRCLDF_LEVEL=F,
 LN_TRCLDF_HOR=F,
 LN_TRCLDF_ISO=T,
 RN_AHTRC_0=  2000.0000000000000     ,
 RN_AHTRB_0=  0.0000000000000000     ,
 RN_FACT_LAP=  0.0000000000000000     ,
 /
&NAMTRC_ZDF
 LN_TRCZDF_EXP=F,
 NN_TRCZDF_EXP=          3,
 /
&NAMTRC_RAD
 LN_TRCRAD=T,
 /
&NAMTRC_DMP
 NN_ZDMP_TR=          1,
 CN_RESTO_TR="resto_tr.nc                                                                                                                                                                                             ",
 /
&NAMTRC_DTA
 SN_TRCDTA(1)%CLNAME="data_nuts_DIC.nc                                                                                                                                                                                                                                                ",
 SN_TRCDTA(1)%NFREQH= -12.000000000000000     ,
 SN_TRCDTA(1)%CLVAR="NO3                               ",
 SN_TRCDTA(1)%LN_TINT=F,
 SN_TRCDTA(1)%LN_CLIM=T,
 SN_TRCDTA(1)%CLTYPE="yearly  ",
 SN_TRCDTA(1)%WNAME="                                                                                                                                                                                                                                                                ",
 SN_TRCDTA(1)%VCOMP="                                  ",
 SN_TRCDTA(1)%LNAME="                                  ",
 SN_TRCDTA(2)%CLNAME="data_nuts_DIC.nc                                                                                                                                                                                                                                                ",
 SN_TRCDTA(2)%NFREQH= -12.000000000000000     ,
 SN_TRCDTA(2)%CLVAR="NH4                               ",
 SN_TRCDTA(2)%LN_TINT=F,
 SN_TRCDTA(2)%LN_CLIM=T,
 SN_TRCDTA(2)%CLTYPE="yearly  ",
 SN_TRCDTA(2)%WNAME="                                                                                                                                                                                                                                                                ",
 SN_TRCDTA(2)%VCOMP="                                  ",
 SN_TRCDTA(2)%LNAME="                                  ",
 SN_TRCDTA(3)%CLNAME="data_nuts_DIC.nc                                                                                                                                                                                                                                                ",
 SN_TRCDTA(3)%NFREQH= -12.000000000000000     ,
 SN_TRCDTA(3)%CLVAR="Si                                ",
 SN_TRCDTA(3)%LN_TINT=F,
 SN_TRCDTA(3)%LN_CLIM=T,
 SN_TRCDTA(3)%CLTYPE="yearly  ",
 SN_TRCDTA(3)%WNAME="                                                                                                                                                                                                                                                                ",
 SN_TRCDTA(3)%VCOMP="                                  ",
 SN_TRCDTA(3)%LNAME="                                  ",
 SN_TRCDTA(4)%CLNAME="data_nuts_DIC.nc                                                                                                                                                                                                                                                ",
 SN_TRCDTA(4)%NFREQH= -12.000000000000000     ,
 SN_TRCDTA(4)%CLVAR="PHY2                              ",
 SN_TRCDTA(4)%LN_TINT=F,
 SN_TRCDTA(4)%LN_CLIM=T,
 SN_TRCDTA(4)%CLTYPE="yearly  ",
 SN_TRCDTA(4)%WNAME="                                                                                                                                                                                                                                                                ",
 SN_TRCDTA(4)%VCOMP="                                  ",
 SN_TRCDTA(4)%LNAME="                                  ",
 SN_TRCDTA(5)%CLNAME="data_nuts_DIC.nc                                                                                                                                                                                                                                                ",
 SN_TRCDTA(5)%NFREQH= -12.000000000000000     ,
 SN_TRCDTA(5)%CLVAR="PHY                               ",
 SN_TRCDTA(5)%LN_TINT=F,
 SN_TRCDTA(5)%LN_CLIM=T,
 SN_TRCDTA(5)%CLTYPE="yearly  ",
 SN_TRCDTA(5)%WNAME="                                                                                                                                                                                                                                                                ",
 SN_TRCDTA(5)%VCOMP="                                  ",
 SN_TRCDTA(5)%LNAME="                                  ",
 SN_TRCDTA(6)%CLNAME="data_nuts_DIC.nc                                                                                                                                                                                                                                                ",
 SN_TRCDTA(6)%NFREQH= -12.000000000000000     ,
 SN_TRCDTA(6)%CLVAR="MYRI                              ",
 SN_TRCDTA(6)%LN_TINT=F,
 SN_TRCDTA(6)%LN_CLIM=T,
 SN_TRCDTA(6)%CLTYPE="yearly  ",
 SN_TRCDTA(6)%WNAME="                                                                                                                                                                                                                                                                ",
 SN_TRCDTA(6)%VCOMP="                                  ",
 SN_TRCDTA(6)%LNAME="                                  ",
 SN_TRCDTA(7)%CLNAME="data_nuts_DIC.nc                                                                                                                                                                                                                                                ",
 SN_TRCDTA(7)%NFREQH= -12.000000000000000     ,
 SN_TRCDTA(7)%CLVAR="MICZ                              ",
 SN_TRCDTA(7)%LN_TINT=F,
 SN_TRCDTA(7)%LN_CLIM=T,
 SN_TRCDTA(7)%CLTYPE="yearly  ",
 SN_TRCDTA(7)%WNAME="                                                                                                                                                                                                                                                                ",
 SN_TRCDTA(7)%VCOMP="                                  ",
 SN_TRCDTA(7)%LNAME="                                  ",
 SN_TRCDTA(8)%CLNAME="data_nuts_DIC.nc                                                                                                                                                                                                                                                ",
 SN_TRCDTA(8)%NFREQH= -12.000000000000000     ,
 SN_TRCDTA(8)%CLVAR="DOC                               ",
 SN_TRCDTA(8)%LN_TINT=F,
 SN_TRCDTA(8)%LN_CLIM=T,
 SN_TRCDTA(8)%CLTYPE="yearly  ",
 SN_TRCDTA(8)%WNAME="                                                                                                                                                                                                                                                                ",
 SN_TRCDTA(8)%VCOMP="                                  ",
 SN_TRCDTA(8)%LNAME="                                  ",
 SN_TRCDTA(9)%CLNAME="data_nuts_DIC.nc                                                                                                                                                                                                                                                ",
 SN_TRCDTA(9)%NFREQH= -12.000000000000000     ,
 SN_TRCDTA(9)%CLVAR="POC                               ",
 SN_TRCDTA(9)%LN_TINT=F,
 SN_TRCDTA(9)%LN_CLIM=T,
 SN_TRCDTA(9)%CLTYPE="yearly  ",
 SN_TRCDTA(9)%WNAME="                                                                                                                                                                                                                                                                ",
 SN_TRCDTA(9)%VCOMP="                                  ",
 SN_TRCDTA(9)%LNAME="                                  ",
 SN_TRCDTA(10)%CLNAME="data_nuts_DIC.nc                                                                                                                                                                                                                                                ",
 SN_TRCDTA(10)%NFREQH= -12.000000000000000     ,
 SN_TRCDTA(10)%CLVAR="bSi                               ",
 SN_TRCDTA(10)%LN_TINT=F,
 SN_TRCDTA(10)%LN_CLIM=T,
 SN_TRCDTA(10)%CLTYPE="yearly  ",
 SN_TRCDTA(10)%WNAME="                                                                                                                                                                                                                                                                ",
 SN_TRCDTA(10)%VCOMP="                                  ",
 SN_TRCDTA(10)%LNAME="                                  ",
 SN_TRCDTA(11)%CLNAME="data_nuts_DIC.nc                                                                                                                                                                                                                                                ",
 SN_TRCDTA(11)%NFREQH= -12.000000000000000     ,
 SN_TRCDTA(11)%CLVAR="bSi                               ",
 SN_TRCDTA(11)%LN_TINT=F,
 SN_TRCDTA(11)%LN_CLIM=T,
 SN_TRCDTA(11)%CLTYPE="yearly  ",
 SN_TRCDTA(11)%WNAME="                                                                                                                                                                                                                                                                ",
 SN_TRCDTA(11)%VCOMP="                                  ",
 SN_TRCDTA(11)%LNAME="                                  ",
 SN_TRCDTA(12)%CLNAME="data_nuts_DIC.nc                                                                                                                                                                                                                                                ",
 SN_TRCDTA(12)%NFREQH= -12.000000000000000     ,
 SN_TRCDTA(12)%CLVAR="DIC                               ",
 SN_TRCDTA(12)%LN_TINT=F,
 SN_TRCDTA(12)%LN_CLIM=T,
 SN_TRCDTA(12)%CLTYPE="yearly  ",
 SN_TRCDTA(12)%WNAME="                                                                                                                                                                                                                                                                ",
 SN_TRCDTA(12)%VCOMP="                                  ",
 SN_TRCDTA(12)%LNAME="                                  ",
 SN_TRCDTA(13)%CLNAME="data_nuts_DIC.nc                                                                                                                                                                                                                                                ",
 SN_TRCDTA(13)%NFREQH= -12.000000000000000     ,
 SN_TRCDTA(13)%CLVAR="TA                                ",
 SN_TRCDTA(13)%LN_TINT=F,
 SN_TRCDTA(13)%LN_CLIM=T,
 SN_TRCDTA(13)%CLTYPE="yearly  ",
 SN_TRCDTA(13)%WNAME="                                                                                                                                                                                                                                                                ",
 SN_TRCDTA(13)%VCOMP="                                  ",
 SN_TRCDTA(13)%LNAME="                                  ",
 SN_TRCDTA(14)%CLNAME="                                                                                                                                                                                                                                                                ",
 SN_TRCDTA(14)%NFREQH=  0.0000000000000000     ,
 SN_TRCDTA(14)%CLVAR="                                  ",
 SN_TRCDTA(14)%LN_TINT=F,
 SN_TRCDTA(14)%LN_CLIM=F,
 SN_TRCDTA(14)%CLTYPE="        ",
 SN_TRCDTA(14)%WNAME="                                                                                                                                                                                                                                                                ",
 SN_TRCDTA(14)%VCOMP="                                  ",
 SN_TRCDTA(14)%LNAME="                                  ",
 SN_TRCDTA(15)%CLNAME="                                                                                                                                                                                                                                                                ",
 SN_TRCDTA(15)%NFREQH=  0.0000000000000000     ,
 SN_TRCDTA(15)%CLVAR="                                  ",
 SN_TRCDTA(15)%LN_TINT=F,
 SN_TRCDTA(15)%LN_CLIM=F,
 SN_TRCDTA(15)%CLTYPE="        ",
 SN_TRCDTA(15)%WNAME="                                                                                                                                                                                                                                                                ",
 SN_TRCDTA(15)%VCOMP="                                  ",
 SN_TRCDTA(15)%LNAME="                                  ",
 SN_TRCDTA(16)%CLNAME="                                                                                                                                                                                                                                                                ",
 SN_TRCDTA(16)%NFREQH=  0.0000000000000000     ,
 SN_TRCDTA(16)%CLVAR="                                  ",
 SN_TRCDTA(16)%LN_TINT=F,
 SN_TRCDTA(16)%LN_CLIM=F,
 SN_TRCDTA(16)%CLTYPE="        ",
 SN_TRCDTA(16)%WNAME="                                                                                                                                                                                                                                                                ",
 SN_TRCDTA(16)%VCOMP="                                  ",
 SN_TRCDTA(16)%LNAME="                                  ",
 SN_TRCDTA(17)%CLNAME="                                                                                                                                                                                                                                                                ",
 SN_TRCDTA(17)%NFREQH=  0.0000000000000000     ,
 SN_TRCDTA(17)%CLVAR="                                  ",
 SN_TRCDTA(17)%LN_TINT=F,
 SN_TRCDTA(17)%LN_CLIM=F,
 SN_TRCDTA(17)%CLTYPE="        ",
 SN_TRCDTA(17)%WNAME="                                                                                                                                                                                                                                                                ",
 SN_TRCDTA(17)%VCOMP="                                  ",
 SN_TRCDTA(17)%LNAME="                                  ",
 SN_TRCDTA(18)%CLNAME="                                                                                                                                                                                                                                                                ",
 SN_TRCDTA(18)%NFREQH=  0.0000000000000000     ,
 SN_TRCDTA(18)%CLVAR="                                  ",
 SN_TRCDTA(18)%LN_TINT=F,
 SN_TRCDTA(18)%LN_CLIM=F,
 SN_TRCDTA(18)%CLTYPE="        ",
 SN_TRCDTA(18)%WNAME="                                                                                                                                                                                                                                                                ",
 SN_TRCDTA(18)%VCOMP="                                  ",
 SN_TRCDTA(18)%LNAME="                                  ",
 SN_TRCDTA(19)%CLNAME="                                                                                                                                                                                                                                                                ",
 SN_TRCDTA(19)%NFREQH=  0.0000000000000000     ,
 SN_TRCDTA(19)%CLVAR="                                  ",
 SN_TRCDTA(19)%LN_TINT=F,
 SN_TRCDTA(19)%LN_CLIM=F,
 SN_TRCDTA(19)%CLTYPE="        ",
 SN_TRCDTA(19)%WNAME="                                                                                                                                                                                                                                                                ",
 SN_TRCDTA(19)%VCOMP="                                  ",
 SN_TRCDTA(19)%LNAME="                                  ",
 SN_TRCDTA(20)%CLNAME="                                                                                                                                                                                                                                                                ",
 SN_TRCDTA(20)%NFREQH=  0.0000000000000000     ,
 SN_TRCDTA(20)%CLVAR="                                  ",
 SN_TRCDTA(20)%LN_TINT=F,
 SN_TRCDTA(20)%LN_CLIM=F,
 SN_TRCDTA(20)%CLTYPE="        ",
 SN_TRCDTA(20)%WNAME="                                                                                                                                                                                                                                                                ",
 SN_TRCDTA(20)%VCOMP="                                  ",
 SN_TRCDTA(20)%LNAME="                                  ",
 SN_TRCDTA(21)%CLNAME="                                                                                                                                                                                                                                                                ",
 SN_TRCDTA(21)%NFREQH=  0.0000000000000000     ,
 SN_TRCDTA(21)%CLVAR="                                  ",
 SN_TRCDTA(21)%LN_TINT=F,
 SN_TRCDTA(21)%LN_CLIM=F,
 SN_TRCDTA(21)%CLTYPE="        ",
 SN_TRCDTA(21)%WNAME="                                                                                                                                                                                                                                                                ",
 SN_TRCDTA(21)%VCOMP="                                  ",
 SN_TRCDTA(21)%LNAME="                                  ",
 SN_TRCDTA(22)%CLNAME="                                                                                                                                                                                                                                                                ",
 SN_TRCDTA(22)%NFREQH=  0.0000000000000000     ,
 SN_TRCDTA(22)%CLVAR="                                  ",
 SN_TRCDTA(22)%LN_TINT=F,
 SN_TRCDTA(22)%LN_CLIM=F,
 SN_TRCDTA(22)%CLTYPE="        ",
 SN_TRCDTA(22)%WNAME="                                                                                                                                                                                                                                                                ",
 SN_TRCDTA(22)%VCOMP="                                  ",
 SN_TRCDTA(22)%LNAME="                                  ",
 SN_TRCDTA(23)%CLNAME="                                                                                                                                                                                                                                                                ",
 SN_TRCDTA(23)%NFREQH=  0.0000000000000000     ,
 SN_TRCDTA(23)%CLVAR="                                  ",
 SN_TRCDTA(23)%LN_TINT=F,
 SN_TRCDTA(23)%LN_CLIM=F,
 SN_TRCDTA(23)%CLTYPE="        ",
 SN_TRCDTA(23)%WNAME="                                                                                                                                                                                                                                                                ",
 SN_TRCDTA(23)%VCOMP="                                  ",
 SN_TRCDTA(23)%LNAME="                                  ",
 SN_TRCDTA(24)%CLNAME="                                                                                                                                                                                                                                                                ",
 SN_TRCDTA(24)%NFREQH=  0.0000000000000000     ,
 SN_TRCDTA(24)%CLVAR="                                  ",
 SN_TRCDTA(24)%LN_TINT=F,
 SN_TRCDTA(24)%LN_CLIM=F,
 SN_TRCDTA(24)%CLTYPE="        ",
 SN_TRCDTA(24)%WNAME="                                                                                                                                                                                                                                                                ",
 SN_TRCDTA(24)%VCOMP="                                  ",
 SN_TRCDTA(24)%LNAME="                                  ",
 SN_TRCDTA(25)%CLNAME="                                                                                                                                                                                                                                                                ",
 SN_TRCDTA(25)%NFREQH=  0.0000000000000000     ,
 SN_TRCDTA(25)%CLVAR="                                  ",
 SN_TRCDTA(25)%LN_TINT=F,
 SN_TRCDTA(25)%LN_CLIM=F,
 SN_TRCDTA(25)%CLTYPE="        ",
 SN_TRCDTA(25)%WNAME="                                                                                                                                                                                                                                                                ",
 SN_TRCDTA(25)%VCOMP="                                  ",
 SN_TRCDTA(25)%LNAME="                                  ",
 SN_TRCDTA(26)%CLNAME="                                                                                                                                                                                                                                                                ",
 SN_TRCDTA(26)%NFREQH=  0.0000000000000000     ,
 SN_TRCDTA(26)%CLVAR="                                  ",
 SN_TRCDTA(26)%LN_TINT=F,
 SN_TRCDTA(26)%LN_CLIM=F,
 SN_TRCDTA(26)%CLTYPE="        ",
 SN_TRCDTA(26)%WNAME="                                                                                                                                                                                                                                                                ",
 SN_TRCDTA(26)%VCOMP="                                  ",
 SN_TRCDTA(26)%LNAME="                                  ",
 SN_TRCDTA(27)%CLNAME="                                                                                                                                                                                                                                                                ",
 SN_TRCDTA(27)%NFREQH=  0.0000000000000000     ,
 SN_TRCDTA(27)%CLVAR="                                  ",
 SN_TRCDTA(27)%LN_TINT=F,
 SN_TRCDTA(27)%LN_CLIM=F,
 SN_TRCDTA(27)%CLTYPE="        ",
 SN_TRCDTA(27)%WNAME="                                                                                                                                                                                                                                                                ",
 SN_TRCDTA(27)%VCOMP="                                  ",
 SN_TRCDTA(27)%LNAME="                                  ",
 SN_TRCDTA(28)%CLNAME="                                                                                                                                                                                                                                                                ",
 SN_TRCDTA(28)%NFREQH=  0.0000000000000000     ,
 SN_TRCDTA(28)%CLVAR="                                  ",
 SN_TRCDTA(28)%LN_TINT=F,
 SN_TRCDTA(28)%LN_CLIM=F,
 SN_TRCDTA(28)%CLTYPE="        ",