!!>>>>>>>>>>>>>>>>>>>>>>>>>>>>>>>>>>>>>>>>>>>>>>>>>>>>>>>>>>>>>>>>>>>>>>
!! NEMO/TOP1 CFG:   - tracer run information                (namtrc_run)
!!               - tracer definition                     (namtrc    )
!!               - tracer data initialisation            (namtrc_dta)
!!               - tracer advection                      (namtrc_adv)
!!               - tracer lateral diffusion              (namtrc_ldf)
!!               - tracer vertical physics               (namtrc_zdf)
!!               - tracer newtonian damping              (namtrc_dmp)
!!               - dynamical tracer trends               (namtrc_trd)
!!               - tracer output diagonstics             (namtrc_dia)
!>>>>>>>>>>>>>>>>>>>>>>>>>>>>>>>>>>>>>>>>>>>>>>>>>>>>>>>>>>>>>>>>>>>>>>>
&namtrc_run     !   run information
!-----------------------------------------------------------------------
   nn_dttrc      =  1        !  time step frequency for passive sn_tracers
   nn_writetrc   =  1      !  time step frequency for sn_tracer outputs
   ln_top_euler  = .false.    !  use Euler time-stepping for TOP
   ln_rsttr      = .false.   !  start from a restart file (T) or not (F)
   nn_rsttr      =   0       !  restart control = 0 initial time step is not compared to the restart file value
                           !                  = 1 do not use the value in the restart file
                           !                  = 2 calendar parameters read in the restart file
   cn_trcrst_in  = "restart_trc"   !  suffix of pass. sn_tracer restart name (input)
   cn_trcrst_indir = "."           !  directory from which to read input passive tracer restarts
   cn_trcrst_out = "restart_trc"   !  suffix of pass. sn_tracer restart name (output)
   cn_trcrst_outdir = "."          !  directory to which to write output passive tracer restarts
/
!'''''''''''''''''''''''''''''''''''''''''''''''''''''''''''''''''''''''
&namtrc     !   tracers definition
!,,,,,,,,,,,,,,,,,,,,,,,,,,,,,,,,,,,,,,,,,,,,,,,,,,,,,,,,,,,,,,,,,,,,,,,
!                !    name   !           title of the field              ! initial data ! initial data ! obc    !    sbc  !  cbc    ! save   !
!                !           !                                           !  units       ! from file    !                             ! or not ! 
!                !           !                                           !              ! or not       !                             !        !
!   sn_tracer(1)  = 'NO3     ' , 'Nitrates Concentration                 ',  'mol-C/L' ,  .true.     , .false.   ,  .false. ,  .false.  ,  .true.
!   sn_tracer(2)  = 'NH4     ' , 'Ammonium Concentration                 ',  'mol-C/L' ,  .true.     , .false.   ,  .false. ,  .false.  ,  .true.
!   sn_tracer(3)  = 'Si      ' , 'Silicate Concentration                 ',  'mol-C/L' ,  .true.     , .false.   ,  .false. ,  .false.  ,  .true.
!   sn_tracer(4)  = 'DIAT    ' , 'Diatoms Concentration                  ',  'mol-C/L' ,  .true.     , .false.   ,  .false. ,  .false.  ,  .true.
!   sn_tracer(5)  = 'PHY     ' , 'Nanophytoplankton Concentration        ',  'mol-C/L' ,  .true.     , .false.   ,  .false. ,  .false.  ,  .true.
!   sn_tracer(6)  = 'MYRI    ' , 'Mesozooplankton Concentration          ',  'mol-C/L' ,  .true.     , .false.   ,  .false. ,  .false.  ,  .true.
!   sn_tracer(7)  = 'MICZ    ' , 'Microzooplankton Concentration         ',  'mol-C/L' ,  .true.     , .false.   ,  .false. ,  .false.  ,  .true.
!   sn_tracer(8)  = 'DON     ' , 'Dissolved organic Concentration        ',  'mol-C/L' ,  .true.     , .false.   ,  .false. ,  .false.  ,  .true.
!   sn_tracer(9)  = 'PON     ' , 'Small organic carbon Concentration     ',  'mol-C/L' ,  .false.     , .false.   ,  .false. ,  .false.  ,  .true.
!   sn_tracer(10) = 'bSi     ' , 'biogenic Silicate Concentration        ',  'mol-C/L' ,  .true.     , .false.   ,  .false. ,  .false.  ,  .true.
!   sn_tracer(11) = 'TRA     ' , 'River Tracer                           ',  'mol-C/L' ,  .false.    , .false.   ,  .false. ,  .false.  ,  .true.
!   sn_tracer(12) = 'DIC     ' , 'Dissolved inorganic Carbon             ',  'mol-C/L' ,  .true.    , .false.   ,  .false. ,  .false.  ,  .true.
!   sn_tracer(13) = 'TA     ' , 'Total Alkalinity                       ',  'mol-C/L' ,  .true.    , .false.   ,  .false. ,  .false.  ,  .true.

   ln_trcdta = .false. !read data from input file, or not
   ln_trcdmp = .false.
   /
!-----------------------------------------------------------------------
&namtrc_dta      !    Initialisation from data input file
!-----------------------------------------------------------------------
!
!                !  file name               ! frequency (hours) ! variable   ! time interp. !  clim  ! 'yearly'/ ! weights  ! rotation ! land/sea mask !
!                !                          !  (if <0  months)  !   name     !   (logical)  !  (T/F) ! 'monthly' ! filename ! pairing  ! filename      !
!   sn_trcdta(1)  = 'data_nuts_DIC.nc'    ,        -12        ,  'NO3'     ,    .false.   , .true. , 'yearly'  , ''       , ''       , ''
!  sn_trcdta(2)  = 'data_nuts_DIC.nc'    ,        -12        ,  'NH4'     ,    .false.   , .true. , 'yearly'  , ''       , ''       , ''
!   sn_trcdta(3)  = 'data_nuts_DIC.nc'    ,        -12        ,  'Si'      ,    .false.   , .true. , 'yearly'  , ''       , ''       , ''
!   sn_trcdta(4)  = 'data_nuts_DIC.nc'    ,        -12        ,  'PHY2'    ,    .false.   , .true. , 'yearly'  , ''       , ''       , ''
!   sn_trcdta(5)  = 'data_nuts_DIC.nc'    ,        -12        ,  'PHY'     ,    .false.   , .true. , 'yearly'  , ''       , ''       , ''
!   sn_trcdta(6)  = 'data_nuts_DIC.nc'    ,        -12        ,  'MYRI'    ,    .false.   , .true. , 'yearly'  , ''       , ''       , ''
!   sn_trcdta(7)  = 'data_nuts_DIC.nc'    ,        -12        ,  'MICZ'    ,    .false.   , .true. , 'yearly'  , ''       , ''       , ''
!   sn_trcdta(8)  = 'data_nuts_DIC.nc'    ,        -12        ,  'DOC'     ,    .false.   , .true. , 'yearly'  , ''       , ''       , ''
!   sn_trcdta(9)  = 'data_nuts_DIC.nc'    ,        -12        ,  'POC'     ,    .false.   , .true. , 'yearly'  , ''       , ''       , ''
!   sn_trcdta(10) = 'data_nuts_DIC.nc'    ,        -12        ,  'bSi'     ,    .false.   , .true. , 'yearly'  , ''       , ''       , ''
!  sn_trcdta(11) = 'data_nuts_DIC.nc'    ,        -12        ,  'bSi'     ,    .false.   , .true. , 'yearly'  , ''       , ''       , ''
!   sn_trcdta(12) = 'data_nuts_DIC.nc'    ,        -12        ,  'DIC'     ,    .false.   , .true. , 'yearly'  , ''       , ''       , '' 
!  sn_trcdta(13) = 'data_nuts_DIC.nc'    ,        -12        ,  'TA'     ,    .false.   , .true. , 'yearly'  , ''       , ''       , ''  

   rn_trfac(1)   =  7.6e-6  !  -      -      -     -
   rn_trfac(2)   =  7.6e-6  !  -      -      -     -
   rn_trfac(3)   =  1.0e-6  !  multiplicative factor
   rn_trfac(4)   =  1.0e-6  !  -      -      -     -
   rn_trfac(5)   =  1.0e-6  !  -      -      -     -
   rn_trfac(6)   =  1.0  !  -      -      -     -
   rn_trfac(7)   =  1.0  !  -      -      -     -
   rn_trfac(8)   =  1.0  !  -      -      -     -
   rn_trfac(9)   =  1.0  !  -      -      -     -
   rn_trfac(10)  =  1.0  !  -      -      -     -
   rn_trfac(11)  =  1.0  !  -      -    
   rn_trfac(12)  =  1.0  !  -      -
   rn_trfac(13)  =  1.0  !  -      -    
/
!-----------------------------------------------------------------------
&namtrc_run     !   run information
!-----------------------------------------------------------------------
   ln_top_euler  = .true.    !  use Euler time-stepping for TOP
/
!-----------------------------------------------------------------------
&namtrc     !   tracers definition
!-----------------------------------------------------------------------
/
!-----------------------------------------------------------------------
&namtrc_dta      !    Initialisation from data input file
!-----------------------------------------------------------------------
!
/
!-----------------------------------------------------------------------
&namtrc_adv    !   advection scheme for passive tracer 
!-----------------------------------------------------------------------
/
!-----------------------------------------------------------------------
&namtrc_ldf    !   lateral diffusion scheme for passive tracer 
!-----------------------------------------------------------------------
!                               !  Type of the operator : 
/
!-----------------------------------------------------------------------
&namtrc_zdf        !   vertical physics
!-----------------------------------------------------------------------
/
!-----------------------------------------------------------------------
&namtrc_rad        !  treatment of negative concentrations 
!-----------------------------------------------------------------------
/
!-----------------------------------------------------------------------
&namtrc_dmp    !   passive tracer newtonian damping   
!-----------------------------------------------------------------------
/
!-----------------------------------------------------------------------
&namtrc_ice       !    Representation of sea ice growth & melt effects
!-----------------------------------------------------------------------
/
!-----------------------------------------------------------------------
&namtrc_trd       !   diagnostics on tracer trends        ('key_trdtrc')
!                          or mixed-layer trends          ('key_trdmld_trc')
!----------------------------------------------------------------------
/
!-----------------------------------------------------------------------
&namtrc_dia       !   parameters for passive tracer additional diagnostics
!----------------------------------------------------------------------
/
!----------------------------------------------------------------------
! namtrc_bc       !   data for boundary conditions
!-----------------------------------------------------------------------
&namtrc_bc
!
/
